LIG
  -OEChem-07082123223D

 92 96  0     0  0  0  0  0  0999 V2000
  -12.9630  -14.2610  -26.5570 C   0  0  0  0  0  0  0  0  0  0  0  0
  -14.6800  -18.8340  -20.2350 F   0  0  0  0  0  0  0  0  0  0  0  0
  -13.4600  -16.2590  -25.1000 N   0  0  0  0  0  0  0  0  0  0  0  0
  -12.8470  -14.8130  -23.4950 O   0  0  0  0  0  0  0  0  0  0  0  0
  -14.7480   -0.2980  -24.7550 S   0  0  0  0  0  0  0  0  0  0  0  0
  -12.5040  -15.6750  -26.0670 C   0  0  0  0  0  0  0  0  0  0  0  0
  -18.2320  -15.8820  -25.9920 N   0  0  0  0  0  0  0  0  0  0  0  0
  -16.0170  -14.6280  -23.3750 O   0  0  0  0  0  0  0  0  0  0  0  0
  -11.1040  -15.6810  -25.5240 C   0  0  0  0  0  0  0  0  0  0  0  0
  -17.2960  -13.9360  -26.7110 N   0  0  0  0  0  0  0  0  0  0  0  0
  -15.6420    0.8000  -24.5000 O   0  0  0  0  0  0  0  0  0  0  0  0
  -14.1380  -17.4940  -25.4970 C   0  0  0  0  0  0  0  0  0  0  0  0
  -15.8520  -12.6110  -25.4240 N   0  0  0  0  0  0  0  0  0  0  0  0
  -13.8030    0.2060  -25.7300 O   0  0  0  0  0  0  0  0  0  0  0  0
  -15.0110  -17.1890  -26.7080 C   0  0  0  0  0  0  0  0  0  0  0  0
  -14.3030   -7.9740  -25.9310 N   0  3  0  0  0  0  0  0  0  0  0  0
  -13.1560  -18.7050  -25.6610 C   0  0  0  0  0  0  0  0  0  0  0  0
  -15.5630   -1.4670  -25.4750 N   0  0  0  0  0  0  0  0  0  0  0  0
  -13.5500  -15.7800  -23.9040 C   0  0  0  0  0  0  0  0  0  0  0  0
  -14.4330  -16.3740  -22.8540 C   0  0  0  0  0  0  0  0  0  0  0  0
  -15.7200  -15.6860  -22.6110 C   0  0  0  0  0  0  0  0  0  0  0  0
  -16.7090  -14.7550  -24.5670 C   0  0  0  0  0  0  0  0  0  0  0  0
  -17.5440  -15.8140  -24.8060 C   0  0  0  0  0  0  0  0  0  0  0  0
  -18.0820  -14.9630  -26.8740 C   0  0  0  0  0  0  0  0  0  0  0  0
  -16.6010  -13.7480  -25.5700 C   0  0  0  0  0  0  0  0  0  0  0  0
  -15.0620  -12.0410  -24.2880 C   0  0  0  0  0  0  0  0  0  0  0  0
  -15.0250  -10.7600  -25.1190 C   0  0  0  0  0  0  0  0  0  0  0  0
  -15.8080  -11.4460  -26.2640 C   0  0  0  0  0  0  0  0  0  0  0  0
  -15.7540   -9.5170  -24.5710 C   0  0  0  0  0  0  0  0  0  0  0  0
  -15.6940   -8.3290  -25.5550 C   0  0  0  0  0  0  0  0  0  0  0  0
  -14.2160   -6.9570  -27.0110 C   0  0  0  0  0  0  0  0  0  0  0  0
  -14.8730   -5.6150  -26.5000 C   0  0  0  0  0  0  0  0  0  0  0  0
  -14.3360   -5.1350  -25.1560 C   0  0  0  0  0  0  0  0  0  0  0  0
  -15.0340   -3.8120  -24.7310 C   0  0  0  0  0  0  0  0  0  0  0  0
  -14.7840   -2.6820  -25.7590 C   0  0  0  0  0  0  0  0  0  0  0  0
  -15.2760   -3.1550  -27.1400 C   0  0  0  0  0  0  0  0  0  0  0  0
  -14.7780   -4.5590  -27.5460 C   0  0  0  0  0  0  0  0  0  0  0  0
  -13.8760   -0.8090  -23.4550 C   0  0  0  0  0  0  0  0  0  0  0  0
  -13.5530   -9.1940  -26.4790 C   0  0  0  0  0  0  0  0  0  0  0  0
  -13.6060  -10.3820  -25.5260 C   0  0  0  0  0  0  0  0  0  0  0  0
  -16.5600  -16.0790  -21.6160 C   0  0  0  0  0  0  0  0  0  0  0  0
  -16.2620  -17.1900  -20.8520 C   0  0  0  0  0  0  0  0  0  0  0  0
  -14.9940  -17.8140  -21.0170 C   0  0  0  0  0  0  0  0  0  0  0  0
  -14.0680  -17.4440  -22.0370 C   0  0  0  0  0  0  0  0  0  0  0  0
  -12.2275  -13.8635  -27.2718 H   0  0  0  0  0  0  0  0  0  0  0  0
  -13.9438  -14.3438  -27.0482 H   0  0  0  0  0  0  0  0  0  0  0  0
  -13.0407  -13.5818  -25.6952 H   0  0  0  0  0  0  0  0  0  0  0  0
  -12.5050  -16.3230  -26.9559 H   0  0  0  0  0  0  0  0  0  0  0  0
  -10.4207  -15.2414  -26.2655 H   0  0  0  0  0  0  0  0  0  0  0  0
  -11.0679  -15.0902  -24.5968 H   0  0  0  0  0  0  0  0  0  0  0  0
  -10.7977  -16.7159  -25.3115 H   0  0  0  0  0  0  0  0  0  0  0  0
  -14.8220  -17.7665  -24.6797 H   0  0  0  0  0  0  0  0  0  0  0  0
  -15.5318  -18.1045  -27.0252 H   0  0  0  0  0  0  0  0  0  0  0  0
  -15.7510  -16.4198  -26.4420 H   0  0  0  0  0  0  0  0  0  0  0  0
  -14.3805  -16.8221  -27.5313 H   0  0  0  0  0  0  0  0  0  0  0  0
  -13.8187   -7.6383  -25.1231 H   0  0  0  0  0  0  0  0  0  0  0  0
  -13.7227  -19.5995  -25.9589 H   0  0  0  0  0  0  0  0  0  0  0  0
  -12.4097  -18.4696  -26.4340 H   0  0  0  0  0  0  0  0  0  0  0  0
  -12.6462  -18.8956  -24.7051 H   0  0  0  0  0  0  0  0  0  0  0  0
  -16.5299   -1.3798  -25.7147 H   0  0  0  0  0  0  0  0  0  0  0  0
  -17.6605  -16.5914  -24.0654 H   0  0  0  0  0  0  0  0  0  0  0  0
  -18.6348  -15.0441  -27.7983 H   0  0  0  0  0  0  0  0  0  0  0  0
  -14.0840  -12.5141  -24.1157 H   0  0  0  0  0  0  0  0  0  0  0  0
  -15.6048  -11.9634  -23.3344 H   0  0  0  0  0  0  0  0  0  0  0  0
  -15.2428  -11.5720  -27.1992 H   0  0  0  0  0  0  0  0  0  0  0  0
  -16.7884  -10.9991  -26.4855 H   0  0  0  0  0  0  0  0  0  0  0  0
  -16.8079   -9.7748  -24.3898 H   0  0  0  0  0  0  0  0  0  0  0  0
  -15.2817   -9.2174  -23.6238 H   0  0  0  0  0  0  0  0  0  0  0  0
  -16.1659   -7.4550  -25.0824 H   0  0  0  0  0  0  0  0  0  0  0  0
  -16.2486   -8.5971  -26.4664 H   0  0  0  0  0  0  0  0  0  0  0  0
  -13.1611   -6.7783  -27.2666 H   0  0  0  0  0  0  0  0  0  0  0  0
  -14.7532   -7.3161  -27.9012 H   0  0  0  0  0  0  0  0  0  0  0  0
  -15.9414   -5.8330  -26.3550 H   0  0  0  0  0  0  0  0  0  0  0  0
  -14.5263   -5.9054  -24.3943 H   0  0  0  0  0  0  0  0  0  0  0  0
  -13.2529   -4.9620  -25.2400 H   0  0  0  0  0  0  0  0  0  0  0  0
  -14.6404   -3.4986  -23.7528 H   0  0  0  0  0  0  0  0  0  0  0  0
  -16.1167   -3.9890  -24.6509 H   0  0  0  0  0  0  0  0  0  0  0  0
  -13.7089   -2.4540  -25.8048 H   0  0  0  0  0  0  0  0  0  0  0  0
  -14.9280   -2.4345  -27.8949 H   0  0  0  0  0  0  0  0  0  0  0  0
  -16.3758   -3.1701  -27.1271 H   0  0  0  0  0  0  0  0  0  0  0  0
  -13.7213   -4.4694  -27.8383 H   0  0  0  0  0  0  0  0  0  0  0  0
  -15.3712   -4.8889  -28.4116 H   0  0  0  0  0  0  0  0  0  0  0  0
  -13.3433    0.0451  -23.0115 H   0  0  0  0  0  0  0  0  0  0  0  0
  -14.5544   -1.2461  -22.7075 H   0  0  0  0  0  0  0  0  0  0  0  0
  -13.1478   -1.5678  -23.7774 H   0  0  0  0  0  0  0  0  0  0  0  0
  -12.5007   -8.9183  -26.6423 H   0  0  0  0  0  0  0  0  0  0  0  0
  -14.0078   -9.4881  -27.4364 H   0  0  0  0  0  0  0  0  0  0  0  0
  -13.0375  -10.1286  -24.6190 H   0  0  0  0  0  0  0  0  0  0  0  0
  -13.1412  -11.2480  -26.0201 H   0  0  0  0  0  0  0  0  0  0  0  0
  -17.4636  -15.5199  -21.4227 H   0  0  0  0  0  0  0  0  0  0  0  0
  -16.9779  -17.5780  -20.1426 H   0  0  0  0  0  0  0  0  0  0  0  0
  -13.1318  -17.9658  -22.1699 H   0  0  0  0  0  0  0  0  0  0  0  0
  1  6  1  0  0  0  0
  1 45  1  0  0  0  0
  1 46  1  0  0  0  0
  1 47  1  0  0  0  0
  2 43  1  0  0  0  0
  3 19  1  0  0  0  0
  3 12  1  0  0  0  0
  3  6  1  0  0  0  0
  4 19  2  0  0  0  0
  5 18  1  0  0  0  0
  5 11  2  0  0  0  0
  5 14  2  0  0  0  0
  5 38  1  0  0  0  0
  6  9  1  0  0  0  0
  6 48  1  0  0  0  0
  7 24  1  0  0  0  0
  7 23  2  0  0  0  0
  8 21  1  0  0  0  0
  8 22  1  0  0  0  0
  9 49  1  0  0  0  0
  9 50  1  0  0  0  0
  9 51  1  0  0  0  0
 10 25  1  0  0  0  0
 10 24  2  0  0  0  0
 12 17  1  0  0  0  0
 12 15  1  0  0  0  0
 12 52  1  0  0  0  0
 13 25  1  0  0  0  0
 13 28  1  0  0  0  0
 13 26  1  0  0  0  0
 15 53  1  0  0  0  0
 15 54  1  0  0  0  0
 15 55  1  0  0  0  0
 16 39  1  0  0  0  0
 16 30  1  0  0  0  0
 16 31  1  0  0  0  0
 16 56  1  0  0  0  0
 17 57  1  0  0  0  0
 17 58  1  0  0  0  0
 17 59  1  0  0  0  0
 18 35  1  0  0  0  0
 18 60  1  0  0  0  0
 19 20  1  0  0  0  0
 20 44  1  0  0  0  0
 20 21  2  0  0  0  0
 21 41  1  0  0  0  0
 22 25  2  0  0  0  0
 22 23  1  0  0  0  0
 23 61  1  0  0  0  0
 24 62  1  0  0  0  0
 26 27  1  0  0  0  0
 26 63  1  0  0  0  0
 26 64  1  0  0  0  0
 27 28  1  0  0  0  0
 27 40  1  0  0  0  0
 27 29  1  0  0  0  0
 28 65  1  0  0  0  0
 28 66  1  0  0  0  0
 29 30  1  0  0  0  0
 29 67  1  0  0  0  0
 29 68  1  0  0  0  0
 30 69  1  0  0  0  0
 30 70  1  0  0  0  0
 31 32  1  0  0  0  0
 31 71  1  0  0  0  0
 31 72  1  0  0  0  0
 32 37  1  0  0  0  0
 32 33  1  0  0  0  0
 32 73  1  0  0  0  0
 33 34  1  0  0  0  0
 33 74  1  0  0  0  0
 33 75  1  0  0  0  0
 34 35  1  0  0  0  0
 34 76  1  0  0  0  0
 34 77  1  0  0  0  0
 35 36  1  0  0  0  0
 35 78  1  0  0  0  0
 36 37  1  0  0  0  0
 36 79  1  0  0  0  0
 36 80  1  0  0  0  0
 37 81  1  0  0  0  0
 37 82  1  0  0  0  0
 38 83  1  0  0  0  0
 38 84  1  0  0  0  0
 38 85  1  0  0  0  0
 39 40  1  0  0  0  0
 39 86  1  0  0  0  0
 39 87  1  0  0  0  0
 40 88  1  0  0  0  0
 40 89  1  0  0  0  0
 41 42  2  0  0  0  0
 41 90  1  0  0  0  0
 42 43  1  0  0  0  0
 42 91  1  0  0  0  0
 43 44  2  0  0  0  0
 44 92  1  0  0  0  0
M  CHG  1  16   1
M  END
> <bio:pdb:part:site>
1

> <bio:pdb:part:order>
1

> <bio:pdb:ligand>
true

$$$$
