_1_1
  -OEChem-08032113233D

 92 96  0     0  0  0  0  0  0999 V2000
  -16.5784  -16.0737  -21.6228 C   0  0  0  0  0  0  0  0  0  0  0  0
  -16.2088  -17.1686  -20.8470 C   0  0  0  0  0  0  0  0  0  0  0  0
  -14.1441  -17.3836  -22.1117 C   0  0  0  0  0  0  0  0  0  0  0  0
  -17.6130  -15.8039  -24.8155 C   0  0  0  0  0  0  0  0  0  0  0  0
  -18.1348  -14.9851  -26.8570 C   0  0  0  0  0  0  0  0  0  0  0  0
  -14.5281  -16.2991  -22.9016 C   0  0  0  0  0  0  0  0  0  0  0  0
  -15.7469  -15.6506  -22.6629 C   0  0  0  0  0  0  0  0  0  0  0  0
  -16.7914  -14.7155  -24.5469 C   0  0  0  0  0  0  0  0  0  0  0  0
  -14.9984  -17.8120  -21.0982 C   0  0  0  0  0  0  0  0  0  0  0  0
  -16.7093  -13.7344  -25.5344 C   0  0  0  0  0  0  0  0  0  0  0  0
  -13.5662  -15.7475  -23.8663 C   0  0  0  0  0  0  0  0  0  0  0  0
  -15.1689   -5.2279  -25.2935 C   0  0  0  0  0  0  0  0  0  0  0  0
  -14.5845   -4.5178  -27.6584 C   0  0  0  0  0  0  0  0  0  0  0  0
  -14.9398   -3.8132  -24.7650 C   0  0  0  0  0  0  0  0  0  0  0  0
  -15.2988   -3.2452  -27.2106 C   0  0  0  0  0  0  0  0  0  0  0  0
  -15.7663   -9.5542  -24.6141 C   0  0  0  0  0  0  0  0  0  0  0  0
  -13.5616  -10.3362  -25.5057 C   0  0  0  0  0  0  0  0  0  0  0  0
  -15.7234  -11.5206  -26.2996 C   0  0  0  0  0  0  0  0  0  0  0  0
  -15.1410  -12.0324  -24.3322 C   0  0  0  0  0  0  0  0  0  0  0  0
  -15.8007   -8.4463  -25.6517 C   0  0  0  0  0  0  0  0  0  0  0  0
  -13.5746   -9.2247  -26.5466 C   0  0  0  0  0  0  0  0  0  0  0  0
  -14.3013   -5.5251  -26.5182 C   0  0  0  0  0  0  0  0  0  0  0  0
  -14.7779   -2.7583  -25.8658 C   0  0  0  0  0  0  0  0  0  0  0  0
  -14.9953  -10.7470  -25.1761 C   0  0  0  0  0  0  0  0  0  0  0  0
  -14.9282  -17.4211  -26.7868 C   0  0  0  0  0  0  0  0  0  0  0  0
  -13.2170    0.1945  -22.6341 C   0  0  0  0  0  0  0  0  0  0  0  0
  -10.9902  -15.7825  -25.5323 C   0  0  0  0  0  0  0  0  0  0  0  0
  -12.8578  -14.4474  -26.5900 C   0  0  0  0  0  0  0  0  0  0  0  0
  -14.4161   -6.9443  -27.0971 C   0  0  0  0  0  0  0  0  0  0  0  0
  -14.1028  -17.6036  -25.5203 C   0  0  0  0  0  0  0  0  0  0  0  0
  -13.9651   -0.8641  -23.4144 C   0  0  0  0  0  0  0  0  0  0  0  0
  -12.4180  -15.8201  -26.0783 C   0  0  0  0  0  0  0  0  0  0  0  0
  -18.2983  -15.9683  -25.9635 N   0  0  0  0  0  0  0  0  0  0  0  0
  -17.3801  -13.8824  -26.7076 N   0  0  0  0  0  0  0  0  0  0  0  0
  -15.9520  -12.5679  -25.3684 N   0  0  0  0  0  0  0  0  0  0  0  0
  -15.5325   -1.5384  -25.4894 N   0  0  0  0  0  0  0  0  0  0  0  0
  -13.3875  -16.3809  -25.1079 N   0  0  0  0  0  0  0  0  0  0  0  0
  -14.3892   -8.0414  -26.0496 N   0  3  0  0  0  0  0  0  0  0  0  0
  -12.9735  -14.7395  -23.4820 O   0  0  0  0  0  0  0  0  0  0  0  0
  -15.6993    0.7983  -24.4721 O   0  0  0  0  0  0  0  0  0  0  0  0
  -13.6474    0.1829  -25.8039 O   0  0  0  0  0  0  0  0  0  0  0  0
  -16.1057  -14.5323  -23.3723 O   0  0  0  0  0  0  0  0  0  0  0  0
  -14.6383  -18.8484  -20.3293 F   0  0  0  0  0  0  0  0  0  0  0  0
  -14.7106   -0.1785  -24.8865 S   0  0  0  0  0  0  0  0  0  0  0  0
  -17.5109  -15.5551  -21.4184 H   0  0  0  0  0  0  0  0  0  0  0  0
  -16.8538  -17.5085  -20.0430 H   0  0  0  0  0  0  0  0  0  0  0  0
  -13.1900  -17.8797  -22.2619 H   0  0  0  0  0  0  0  0  0  0  0  0
  -17.7639  -16.6095  -24.1059 H   0  0  0  0  0  0  0  0  0  0  0  0
  -18.6618  -15.0855  -27.7972 H   0  0  0  0  0  0  0  0  0  0  0  0
  -14.9464   -5.9204  -24.4745 H   0  0  0  0  0  0  0  0  0  0  0  0
  -16.2283   -5.3505  -25.5474 H   0  0  0  0  0  0  0  0  0  0  0  0
  -15.1934   -4.9759  -28.4480 H   0  0  0  0  0  0  0  0  0  0  0  0
  -13.6303   -4.2537  -28.1310 H   0  0  0  0  0  0  0  0  0  0  0  0
  -15.7580   -3.5630  -24.0779 H   0  0  0  0  0  0  0  0  0  0  0  0
  -14.0305   -3.8151  -24.1506 H   0  0  0  0  0  0  0  0  0  0  0  0
  -15.1766   -2.4684  -27.9757 H   0  0  0  0  0  0  0  0  0  0  0  0
  -16.3786   -3.4368  -27.1469 H   0  0  0  0  0  0  0  0  0  0  0  0
  -15.2935   -9.1943  -23.6917 H   0  0  0  0  0  0  0  0  0  0  0  0
  -16.7941   -9.8361  -24.3553 H   0  0  0  0  0  0  0  0  0  0  0  0
  -12.9890  -11.1855  -25.8957 H   0  0  0  0  0  0  0  0  0  0  0  0
  -13.0465   -9.9964  -24.5986 H   0  0  0  0  0  0  0  0  0  0  0  0
  -16.6541  -11.0797  -26.6681 H   0  0  0  0  0  0  0  0  0  0  0  0
  -15.1064  -11.8460  -27.1427 H   0  0  0  0  0  0  0  0  0  0  0  0
  -14.2216  -12.6001  -24.1798 H   0  0  0  0  0  0  0  0  0  0  0  0
  -15.6724  -11.9158  -23.3834 H   0  0  0  0  0  0  0  0  0  0  0  0
  -16.3176   -8.7602  -26.5643 H   0  0  0  0  0  0  0  0  0  0  0  0
  -16.3073   -7.5725  -25.2411 H   0  0  0  0  0  0  0  0  0  0  0  0
  -12.5571   -8.8630  -26.7288 H   0  0  0  0  0  0  0  0  0  0  0  0
  -14.0225   -9.5527  -27.4913 H   0  0  0  0  0  0  0  0  0  0  0  0
  -13.2560   -5.3890  -26.2051 H   0  0  0  0  0  0  0  0  0  0  0  0
  -13.7148   -2.5154  -25.9836 H   0  0  0  0  0  0  0  0  0  0  0  0
  -14.2968  -17.2937  -27.6708 H   0  0  0  0  0  0  0  0  0  0  0  0
  -15.5601  -18.2980  -26.9576 H   0  0  0  0  0  0  0  0  0  0  0  0
  -15.5672  -16.5400  -26.7171 H   0  0  0  0  0  0  0  0  0  0  0  0
  -12.4310    0.6473  -23.2466 H   0  0  0  0  0  0  0  0  0  0  0  0
  -13.8916    0.9917  -22.3084 H   0  0  0  0  0  0  0  0  0  0  0  0
  -12.7508   -0.2469  -21.7486 H   0  0  0  0  0  0  0  0  0  0  0  0
  -10.8718  -15.0651  -24.7155 H   0  0  0  0  0  0  0  0  0  0  0  0
  -10.6939  -16.7682  -25.1588 H   0  0  0  0  0  0  0  0  0  0  0  0
  -10.2896  -15.4935  -26.3230 H   0  0  0  0  0  0  0  0  0  0  0  0
  -12.8406  -13.6930  -25.7994 H   0  0  0  0  0  0  0  0  0  0  0  0
  -13.8762  -14.4875  -26.9899 H   0  0  0  0  0  0  0  0  0  0  0  0
  -12.1959  -14.0998  -27.3895 H   0  0  0  0  0  0  0  0  0  0  0  0
  -13.5657   -7.1085  -27.7704 H   0  0  0  0  0  0  0  0  0  0  0  0
  -15.3302   -7.0807  -27.6856 H   0  0  0  0  0  0  0  0  0  0  0  0
  -14.7689  -17.9522  -24.7292 H   0  0  0  0  0  0  0  0  0  0  0  0
  -13.3498  -18.3851  -25.6730 H   0  0  0  0  0  0  0  0  0  0  0  0
  -14.7624   -1.2988  -22.8047 H   0  0  0  0  0  0  0  0  0  0  0  0
  -13.2661   -1.6453  -23.7226 H   0  0  0  0  0  0  0  0  0  0  0  0
  -12.3894  -16.4940  -26.9421 H   0  0  0  0  0  0  0  0  0  0  0  0
  -16.5006   -1.6991  -25.1832 H   0  0  0  0  0  0  0  0  0  0  0  0
  -13.9056   -7.6849  -25.2143 H   0  0  0  0  0  0  0  0  0  0  0  0
  1  2  2  0  0  0  0
  1  7  1  0  0  0  0
  2  9  1  0  0  0  0
  3  6  1  0  0  0  0
  3  9  2  0  0  0  0
  4  8  2  0  0  0  0
  4 33  1  0  0  0  0
  5 33  2  0  0  0  0
  5 34  1  0  0  0  0
  6  7  2  0  0  0  0
  6 11  1  0  0  0  0
  7 42  1  0  0  0  0
  8 10  1  0  0  0  0
  8 42  1  0  0  0  0
  9 43  1  0  0  0  0
 10 34  2  0  0  0  0
 10 35  1  0  0  0  0
 11 37  1  0  0  0  0
 11 39  2  0  0  0  0
 12 14  1  0  0  0  0
 12 22  1  0  0  0  0
 13 15  1  0  0  0  0
 13 22  1  0  0  0  0
 14 23  1  0  0  0  0
 15 23  1  0  0  0  0
 16 20  1  0  0  0  0
 16 24  1  0  0  0  0
 17 21  1  0  0  0  0
 17 24  1  0  0  0  0
 18 24  1  0  0  0  0
 18 35  1  0  0  0  0
 19 24  1  0  0  0  0
 19 35  1  0  0  0  0
 20 38  1  0  0  0  0
 21 38  1  0  0  0  0
 22 29  1  0  0  0  0
 23 36  1  0  0  0  0
 25 30  1  0  0  0  0
 26 31  1  0  0  0  0
 27 32  1  0  0  0  0
 28 32  1  0  0  0  0
 29 38  1  0  0  0  0
 30 37  1  0  0  0  0
 31 44  1  0  0  0  0
 32 37  1  0  0  0  0
 36 44  1  0  0  0  0
 40 44  2  0  0  0  0
 41 44  2  0  0  0  0
  1 45  1  0  0  0  0
  2 46  1  0  0  0  0
  3 47  1  0  0  0  0
  4 48  1  0  0  0  0
  5 49  1  0  0  0  0
 12 50  1  0  0  0  0
 12 51  1  0  0  0  0
 13 52  1  0  0  0  0
 13 53  1  0  0  0  0
 14 54  1  0  0  0  0
 14 55  1  0  0  0  0
 15 56  1  0  0  0  0
 15 57  1  0  0  0  0
 16 58  1  0  0  0  0
 16 59  1  0  0  0  0
 17 60  1  0  0  0  0
 17 61  1  0  0  0  0
 18 62  1  0  0  0  0
 18 63  1  0  0  0  0
 19 64  1  0  0  0  0
 19 65  1  0  0  0  0
 20 66  1  0  0  0  0
 20 67  1  0  0  0  0
 21 68  1  0  0  0  0
 21 69  1  0  0  0  0
 22 70  1  0  0  0  0
 23 71  1  0  0  0  0
 25 72  1  0  0  0  0
 25 73  1  0  0  0  0
 25 74  1  0  0  0  0
 26 75  1  0  0  0  0
 26 76  1  0  0  0  0
 26 77  1  0  0  0  0
 27 78  1  0  0  0  0
 27 79  1  0  0  0  0
 27 80  1  0  0  0  0
 28 81  1  0  0  0  0
 28 82  1  0  0  0  0
 28 83  1  0  0  0  0
 29 84  1  0  0  0  0
 29 85  1  0  0  0  0
 30 86  1  0  0  0  0
 30 87  1  0  0  0  0
 31 88  1  0  0  0  0
 31 89  1  0  0  0  0
 32 90  1  0  0  0  0
 36 91  1  0  0  0  0
 38 92  1  0  0  0  0
M  CHG  1  38   1
M  END
> <POSIT::Probability>
0.95

$$$$
