_1_1
  PyMOL2.5          3D                             0

 92 96  0  0  0  0  0  0  0  0999 V2000
   61.0761   58.8913   65.3674 C   0  0  0  0  0  0  0  0  0  0  0  0
   61.4974   57.6299   65.7781 C   0  0  0  0  0  0  0  0  0  0  0  0
   63.7151   58.0655   64.8830 C   0  0  0  0  0  0  0  0  0  0  0  0
   60.4265   60.1856   62.3277 C   0  0  0  0  0  0  0  0  0  0  0  0
   60.0557   61.6269   60.6261 C   0  0  0  0  0  0  0  0  0  0  0  0
   63.2829   59.3209   64.4533 C   0  0  0  0  0  0  0  0  0  0  0  0
   61.9634   59.7297   64.6877 C   0  0  0  0  0  0  0  0  0  0  0  0
   61.0429   61.1762   63.0830 C   0  0  0  0  0  0  0  0  0  0  0  0
   62.8095   57.2296   65.5324 C   0  0  0  0  0  0  0  0  0  0  0  0
   61.1081   62.4477   62.5140 C   0  0  0  0  0  0  0  0  0  0  0  0
   64.2702   60.2637   63.9089 C   0  0  0  0  0  0  0  0  0  0  0  0
   61.3709   70.4131   65.8718 C   0  0  0  0  0  0  0  0  0  0  0  0
   62.1425   71.9677   64.0208 C   0  0  0  0  0  0  0  0  0  0  0  0
   61.3262   71.5615   66.8779 C   0  0  0  0  0  0  0  0  0  0  0  0
   61.2023   72.9280   64.7449 C   0  0  0  0  0  0  0  0  0  0  0  0
   61.3183   66.0933   64.9380 C   0  0  0  0  0  0  0  0  0  0  0  0
   63.7072   65.8812   64.2205 C   0  0  0  0  0  0  0  0  0  0  0  0
   61.8556   64.8678   62.7201 C   0  0  0  0  0  0  0  0  0  0  0  0
   62.2513   63.7439   64.4671 C   0  0  0  0  0  0  0  0  0  0  0  0
   61.2572   67.4900   64.3459 C   0  0  0  0  0  0  0  0  0  0  0  0
   63.6671   67.2844   63.6301 C   0  0  0  0  0  0  0  0  0  0  0  0
   62.4203   70.6504   64.7839 C   0  0  0  0  0  0  0  0  0  0  0  0
   61.4734   72.9491   66.2425 C   0  0  0  0  0  0  0  0  0  0  0  0
   62.3171   65.2530   64.1447 C   0  0  0  0  0  0  0  0  0  0  0  0
   63.5431   59.6240   60.4093 C   0  0  0  0  0  0  0  0  0  0  0  0
   62.1731   74.6859   70.4962 C   0  0  0  0  0  0  0  0  0  0  0  0
   67.0148   61.0555   62.7895 C   0  0  0  0  0  0  0  0  0  0  0  0
   65.1244   62.5061   61.9460 C   0  0  0  0  0  0  0  0  0  0  0  0
   62.5842   69.5260   63.7489 C   0  0  0  0  0  0  0  0  0  0  0  0
   64.2190   59.0776   61.6596 C   0  0  0  0  0  0  0  0  0  0  0  0
   61.6893   73.9117   69.2896 C   0  0  0  0  0  0  0  0  0  0  0  0
   65.6879   61.0866   62.0302 C   0  0  0  0  0  0  0  0  0  0  0  0
   59.9228   60.3797   61.0935 N   0  0  0  0  0  0  0  0  0  0  0  0
   60.6195   62.6673   61.2645 N   0  0  0  0  0  0  0  0  0  0  0  0
   61.6633   63.5417   63.1898 N   0  0  0  0  0  0  0  0  0  0  0  0
   60.5103   73.8821   66.8759 N   0  0  0  0  0  0  0  0  0  0  0  0
   64.6937   60.1325   62.5754 N   0  0  0  0  0  0  0  0  0  0  0  0
   62.6351   68.1351   64.3526 N   0  3  0  0  0  0  0  0  0  0  0  0
   64.6589   61.1179   64.7055 O   0  0  0  0  0  0  0  0  0  0  0  0
   59.8830   75.6787   68.5793 O   0  0  0  0  0  0  0  0  0  0  0  0
   62.1539   75.7645   67.4846 O   0  0  0  0  0  0  0  0  0  0  0  0
   61.5409   60.9902   64.3482 O   0  0  0  0  0  0  0  0  0  0  0  0
   63.2140   56.0242   65.9549 F   0  0  0  0  0  0  0  0  0  0  0  0
   61.0459   75.0063   68.0324 S   0  0  0  0  0  0  0  0  0  0  0  0
   60.0606   59.2172   65.5744 H   0  0  0  0  0  0  0  0  0  0  0  0
   60.8112   56.9697   66.2987 H   0  0  0  0  0  0  0  0  0  0  0  0
   64.7416   57.7432   64.7374 H   0  0  0  0  0  0  0  0  0  0  0  0
   60.3038   59.1701   62.6870 H   0  0  0  0  0  0  0  0  0  0  0  0
   59.6719   61.8208   59.6327 H   0  0  0  0  0  0  0  0  0  0  0  0
   61.5848   69.4974   66.4337 H   0  0  0  0  0  0  0  0  0  0  0  0
   60.3808   70.2942   65.4165 H   0  0  0  0  0  0  0  0  0  0  0  0
   61.7105   71.7679   63.0321 H   0  0  0  0  0  0  0  0  0  0  0  0
   63.1011   72.4673   63.8336 H   0  0  0  0  0  0  0  0  0  0  0  0
   60.4002   71.4762   67.4605 H   0  0  0  0  0  0  0  0  0  0  0  0
   62.1411   71.4228   67.5997 H   0  0  0  0  0  0  0  0  0  0  0  0
   61.3079   73.9338   64.3196 H   0  0  0  0  0  0  0  0  0  0  0  0
   60.1618   72.6301   64.5568 H   0  0  0  0  0  0  0  0  0  0  0  0
   61.6139   66.1423   65.9935 H   0  0  0  0  0  0  0  0  0  0  0  0
   60.3170   65.6466   64.9088 H   0  0  0  0  0  0  0  0  0  0  0  0
   64.4404   65.2814   63.6690 H   0  0  0  0  0  0  0  0  0  0  0  0
   64.0492   65.9207   65.2621 H   0  0  0  0  0  0  0  0  0  0  0  0
   60.9256   65.3255   62.3708 H   0  0  0  0  0  0  0  0  0  0  0  0
   62.6147   64.9206   61.9337 H   0  0  0  0  0  0  0  0  0  0  0  0
   63.2158   63.2442   64.5716 H   0  0  0  0  0  0  0  0  0  0  0  0
   61.5928   63.4670   65.2953 H   0  0  0  0  0  0  0  0  0  0  0  0
   60.9105   67.4764   63.3076 H   0  0  0  0  0  0  0  0  0  0  0  0
   60.5828   68.1112   64.9358 H   0  0  0  0  0  0  0  0  0  0  0  0
   64.6371   67.7771   63.7554 H   0  0  0  0  0  0  0  0  0  0  0  0
   63.3942   67.2753   62.5689 H   0  0  0  0  0  0  0  0  0  0  0  0
   63.3871   70.7595   65.2963 H   0  0  0  0  0  0  0  0  0  0  0  0
   62.4971   73.3125   66.3950 H   0  0  0  0  0  0  0  0  0  0  0  0
   64.2566   60.1138   59.7405 H   0  0  0  0  0  0  0  0  0  0  0  0
   63.0702   58.8123   59.8481 H   0  0  0  0  0  0  0  0  0  0  0  0
   62.7809   60.3614   60.6637 H   0  0  0  0  0  0  0  0  0  0  0  0
   62.9573   75.3957   70.2148 H   0  0  0  0  0  0  0  0  0  0  0  0
   61.3555   75.2509   70.9532 H   0  0  0  0  0  0  0  0  0  0  0  0
   62.5817   74.0020   71.2456 H   0  0  0  0  0  0  0  0  0  0  0  0
   66.9247   61.4428   63.8082 H   0  0  0  0  0  0  0  0  0  0  0  0
   67.3995   60.0323   62.8522 H   0  0  0  0  0  0  0  0  0  0  0  0
   67.7612   61.6686   62.2733 H   0  0  0  0  0  0  0  0  0  0  0  0
   64.9330   62.9280   62.9359 H   0  0  0  0  0  0  0  0  0  0  0  0
   64.1812   62.5196   61.3902 H   0  0  0  0  0  0  0  0  0  0  0  0
   65.8256   63.1734   61.4350 H   0  0  0  0  0  0  0  0  0  0  0  0
   63.5278   69.6892   63.2136 H   0  0  0  0  0  0  0  0  0  0  0  0
   61.7811   69.5264   63.0036 H   0  0  0  0  0  0  0  0  0  0  0  0
   63.5149   58.4120   62.1618 H   0  0  0  0  0  0  0  0  0  0  0  0
   65.0894   58.4727   61.3813 H   0  0  0  0  0  0  0  0  0  0  0  0
   60.8917   73.2187   69.5726 H   0  0  0  0  0  0  0  0  0  0  0  0
   62.5264   73.3575   68.8583 H   0  0  0  0  0  0  0  0  0  0  0  0
   65.9219   60.7697   61.0075 H   0  0  0  0  0  0  0  0  0  0  0  0
   59.5443   73.5367   66.9416 H   0  0  0  0  0  0  0  0  0  0  0  0
   62.9529   68.2128   65.3281 H   0  0  0  0  0  0  0  0  0  0  0  0
  1  2  2  0  0  0  0
  1  7  1  0  0  0  0
  1 45  1  0  0  0  0
  2  9  1  0  0  0  0
  2 46  1  0  0  0  0
  3  6  1  0  0  0  0
  3  9  2  0  0  0  0
  3 47  1  0  0  0  0
  4  8  2  0  0  0  0
  4 33  1  0  0  0  0
  4 48  1  0  0  0  0
  5 33  2  0  0  0  0
  5 34  1  0  0  0  0
  5 49  1  0  0  0  0
  6  7  2  0  0  0  0
  6 11  1  0  0  0  0
  7 42  1  0  0  0  0
  8 10  1  0  0  0  0
  8 42  1  0  0  0  0
  9 43  1  0  0  0  0
 10 34  2  0  0  0  0
 10 35  1  0  0  0  0
 11 37  1  0  0  0  0
 11 39  2  0  0  0  0
 12 14  1  0  0  0  0
 12 22  1  0  0  0  0
 12 50  1  0  0  0  0
 12 51  1  0  0  0  0
 13 15  1  0  0  0  0
 13 22  1  0  0  0  0
 13 52  1  0  0  0  0
 13 53  1  0  0  0  0
 14 23  1  0  0  0  0
 14 54  1  0  0  0  0
 14 55  1  0  0  0  0
 15 23  1  0  0  0  0
 15 56  1  0  0  0  0
 15 57  1  0  0  0  0
 16 20  1  0  0  0  0
 16 24  1  0  0  0  0
 16 58  1  0  0  0  0
 16 59  1  0  0  0  0
 17 21  1  0  0  0  0
 17 24  1  0  0  0  0
 17 60  1  0  0  0  0
 17 61  1  0  0  0  0
 18 24  1  0  0  0  0
 18 35  1  0  0  0  0
 18 62  1  0  0  0  0
 18 63  1  0  0  0  0
 19 24  1  0  0  0  0
 19 35  1  0  0  0  0
 19 64  1  0  0  0  0
 19 65  1  0  0  0  0
 20 38  1  0  0  0  0
 20 66  1  0  0  0  0
 20 67  1  0  0  0  0
 21 38  1  0  0  0  0
 21 68  1  0  0  0  0
 21 69  1  0  0  0  0
 22 29  1  0  0  0  0
 22 70  1  0  0  0  0
 23 36  1  0  0  0  0
 23 71  1  0  0  0  0
 25 30  1  0  0  0  0
 25 72  1  0  0  0  0
 25 73  1  0  0  0  0
 25 74  1  0  0  0  0
 26 31  1  0  0  0  0
 26 75  1  0  0  0  0
 26 76  1  0  0  0  0
 26 77  1  0  0  0  0
 27 32  1  0  0  0  0
 27 78  1  0  0  0  0
 27 79  1  0  0  0  0
 27 80  1  0  0  0  0
 28 32  1  0  0  0  0
 28 81  1  0  0  0  0
 28 82  1  0  0  0  0
 28 83  1  0  0  0  0
 29 38  1  0  0  0  0
 29 84  1  0  0  0  0
 29 85  1  0  0  0  0
 30 37  1  0  0  0  0
 30 86  1  0  0  0  0
 30 87  1  0  0  0  0
 31 44  1  0  0  0  0
 31 88  1  0  0  0  0
 31 89  1  0  0  0  0
 32 37  1  0  0  0  0
 32 90  1  0  0  0  0
 36 44  1  0  0  0  0
 36 91  1  0  0  0  0
 38 92  1  0  0  0  0
 40 44  2  0  0  0  0
 41 44  2  0  0  0  0
M  END
>  <POSIT::Probability>
0.950000

$$$$
